/*--------------------------------*- C++ -*----------------------------------*\
| =========                 |                                                 |
| \\      /  F ield         | OpenFOAM: The Open Source CFD Toolbox           |
|  \\    /   O peration     | Version:  2.2.0                                 |
|   \\  /    A nd           | Web:      www.OpenFOAM.org                      |
|    \\/     M anipulation  |                                                 |
\*---------------------------------------------------------------------------*/
FoamFile
{
    version     2.0;
    format      ascii;
    class       polyBoundaryMesh;
    location    "constant/polyMesh";
    object      boundary;
}
// * * * * * * * * * * * * * * * * * * * * * * * * * * * * * * * * * * * * * //

6
(
    left
    {
        type            symmetryPlane;
        inGroups        1(symmetryPlane);
        nFaces          60;
        startFace       7860;
    }
    right
    {
        type            patch;
        nFaces          60;
        startFace       7920;
    }
    down
    {
        type            symmetryPlane;
        inGroups        1(symmetryPlane);
        nFaces          60;
        startFace       7980;
    }
    up
    {
        type            patch;
        nFaces          60;
        startFace       8040;
    }
    hole
    {
        type            patch;
        nFaces          40;
        startFace       8100;
    }
    frontAndBack
    {
        type            empty;
        inGroups        1(empty);
        nFaces          8000;
        startFace       8140;
    }
)

// ************************************************************************* //
