/*---------------------------------------------------------------------------*\
| =========                 |                                                 |
| \\      /  F ield         | OpenFOAM: The Open Source CFD Toolbox           |
|  \\    /   O peration     | Version:  1.0                                   |
|   \\  /    A nd           | Web:      http://www.openfoam.org               |
|    \\/     M anipulation  |                                                 |
\*---------------------------------------------------------------------------*/

FoamFile
{
    version         2.0;
    format          ascii;

    root            "";
    case            "";
    instance        "";
    local           "";

    class           dictionary;
    object          contactProperties;
}

// * * * * * * * * * * * * * * * * * * * * * * * * * * * * * * * * * * * * * //

urfValue 0.1;
urfTraction 0.1;
urfFraction 0.1;

contacts
1
(
    c1
    {
        masterPatch    brickTop; //sphereContact; //brickTop;
        slavePatch     sphereContact; //brickTop; //sphereContact;
        frictionCoeff  mu [0 0 0 0 0 0 0] 0;
        contactGaTol     1e-6;
        projectionDir  contactSphere;
        projectionAlgo visible;
    }
);

// ************************************************************************* //
