]/*--------------------------------*- C++ -*----------------------------------*\
| =========                 |                                                 |
| \\      /  F ield         | OpenFOAM Extend Project: Open source CFD        |
|  \\    /   O peration     | Version:  1.6-ext                               |
|   \\  /    A nd           | Web:      www.extend-project.de                 |
|    \\/     M anipulation  |                                                 |
\*---------------------------------------------------------------------------*/
FoamFile
{
    version     2.0;
    format      ascii;
    class       polyBoundaryMesh;
    location    "constant/polyMesh";
    object      boundary;
}
// * * * * * * * * * * * * * * * * * * * * * * * * * * * * * * * * * * * * * //

3
(
    right
    {
        type            patch;
        nFaces          20;
        startFace       760;
    }
    tracFree
    {
        type            patch;
        nFaces          60;
        startFace       780;
    }
    frontAndBack
    {
        type            empty;
        nFaces          800;
        startFace       840;
    }
)

// ************************************************************************* //
